* Schmitt Trigger circuit no. 2

.model nbjt NPN IS=-1e-16 BF=0.99 BR=0.5 TE=38.78

q1   2  5  1  nbjt
q2   3  4  1  nbjt
rc1  6  2     1.5e3
rc2  6  3     1e3
r1   2  4     10e3
re   1  0     100
r2   5  6     5e3
r3   5  0     1.25e3
r4   4  0     1e6
vcc  6  0     10

*NR .nodeset v(1)=1.1767 v(2)=1 v(3)=1.2 v(4)=2 v(5)=1.9 v(6)=10 v(7)=0 
* .nodeset v(1)=0 v(2)=5 v(3)=5 
* .nodeset v(1)=5 v(2)=0 v(3)=5 

.op ptran 100 0.1 1
*.op
